rawData/OpenDSS_Alpha_Model/Line_new.dss
new Line._389-4187491-26 phases=3 bus1=_409-1450774_N.1.2.3.0 bus2=_500-4125309_N.1.2.3.0 length=359.9 spacing=PRI_OH_ABCN units=ft wires=[2/0ACSR,2/0ACSR,2/0ACSR]
new Line._389-453817-0 phases=3 bus1=_500-15191_N.1.2.3.0 bus2=_403-142228_SN.1.2.3.0 length=32.8 spacing=PRI_OH_ABCN units=ft wires=[6CU,6CU,6CU]
new Line._411-3146024-0 phases=1 bus1=_500-4573652_N.3 bus2=_395-3133233_SN.3 length=621.6 spacing=PRI_UG_C units=ft CNCables=[1CN15]
new Line._389-4187491-27 phases=3 bus1=_500-4125309_N.1.2.3.0 bus2=_409-23049_N.1.2.3.0 length=150.8 spacing=PRI_OH_ABCN units=ft wires=[2/0ACSR,2/0ACSR,2/0ACSR]
new Line._411-1709879-0 phases=1 bus1=_395-1695813_LN.2 bus2=_411-1709879-0_N.2 length=189.6 spacing=PRI_UG_B units=ft CNCables=[1CN15]
new Line._411-2489511-0 phases=1 bus1=_395-2483462_LN.2 bus2=_500-3419402_N.2 length=44.1 spacing=PRI_UG_B units=ft CNCables=[1CN15]
new Line._389-3274597-3 phases=3 bus1=_500-15144_N.1.2.3.0 bus2=_402-1615687_SN.1.2.3.0 length=65.6 spacing=PRI_OH_ABCN units=ft wires=[4ACSR,4ACSR,4ACSR]
new Line._389-3340514-1 phases=3 bus1=_409-1378451_N_SEC.1.2.3.0 bus2=_406-2287571_N.1.2.3.0 length=175.2 spacing=SEC_OH_ABCN units=ft CNCables=[unknown,unknown,unknown]
new Line._389-3422127-1 phases=2 bus1=_409-23066_N_SEC.1.2 bus2=_406-2360853_N.1.2 length=80.4 LineCode= 4/0Triplex units=ft 
new Line._389-3141496-2 phases=2 bus1=_409-1258403_N_SEC.1.2 bus2=_406-3142761_N.1.2 length=506.0 LineCode= 4/0Triplex units=ft 
new Line._411-1536571-1 phases=1 bus1=_395-1522793_LN.3 bus2=_395-1522790_SN.3 length=434.5 spacing=PRI_UG_C units=ft CNCables=[1CN15]
new Line._411-2491444-0 phases=1 bus1=_395-2485393_LN.2 bus2=_395-2485394_SN.2 length=299.1 spacing=PRI_UG_B units=ft CNCables=[2CN15]
new Line._389-3378938-0 phases=2 bus1=_500-3249512_N.1.2 bus2=_406-2102301_N.1.2 length=19.0 LineCode= 4/0Triplex units=ft 
new Line._389-1341440-0 phases=2 bus1=_409-425303_N_SEC.1.2 bus2=_406-92333_N.1.2 length=367.5 LineCode= 4/0Triplex units=ft 
new Line._389-3308804-2 phases=2 bus1=_500-3175212_N.1.2 bus2=_406-92255_N.1.2 length=462.7 LineCode= 4/0Triplex units=ft 
new Line._389-3308804-1 phases=2 bus1=_409-1365332_N_SEC.1.2 bus2=_500-3175212_N.1.2 length=182.2 LineCode= 4/0Triplex units=ft 
new Line._389-4187491-14 phases=3 bus1=_500-14012_N.1.2.3 bus2=_403-37196_SN.1.2.3 length=552.0 spacing=PRI_OH_ABCN units=ft wires=[2/0ACSR,2/0ACSR,2/0ACSR]
new Line._389-3385940-0 phases=3 bus1=_500-3255553_N.1.2.3.0 bus2=_406-2075832_N.1.2.3.0 length=384.1 spacing=SEC_OH_ABCN units=ft CNCables=[unknown,unknown,unknown]
new Line._389-4187491-16 phases=3 bus1=_402-2105415_LN.1.2.3.0 bus2=_409-22381_N.1.2.3.0 length=615.5 spacing=PRI_OH_ABCN units=ft wires=[2/0ACSR,2/0ACSR,2/0ACSR]
new Line._389-152712-0 phases=2 bus1=_409-23066_N_SEC.1.2 bus2=_406-92212_N.1.2 length=873.7 LineCode= 4/0Triplex units=ft 
new Line._389-153099-0 phases=3 bus1=_409-23069_N_SEC.1.2.3.0 bus2=_406-92370_N.1.2.3.0 length=130.2 spacing=SEC_OH_ABCN units=ft CNCables=[unknown,unknown,unknown]
new Line._411-2869871-0 phases=1 bus1=_395-2857736_LN.1 bus2=_395-2857728_SN.1 length=139.1 spacing=PRI_UG_A units=ft CNCables=[350CN15]
new Line._389-4187491-11 phases=3 bus1=_409-23030_N.1.2.3.0 bus2=_409-22383_N.1.2.3.0 length=396.9 spacing=PRI_OH_ABCN units=ft wires=[2/0ACSR,2/0ACSR,2/0ACSR]
new Line._389-153282-4 phases=2 bus1=_409-23074_N_SEC.1.3 bus2=_406-92441_N.1.3 length=519.0 spacing=SEC_OH_ACN units=ft CNCables=[unknown,unknown]
new Line._389-4187491-13 phases=3 bus1=_409-22383_N.1.2.3.0 bus2=_500-14012_N.1.2.3.0 length=94.5 spacing=PRI_OH_ABCN units=ft wires=[2/0ACSR,2/0ACSR,2/0ACSR]
new Line._389-3584763-0 phases=2 bus1=_500-3458843_N.1.2 bus2=_406-92313_N.1.2 length=329.0 LineCode= 4/0Triplex units=ft 
new Line._389-3231742-1 phases=2 bus1=_409-23066_N_SEC.1.2 bus2=_500-3087972_N.1.2 length=679.2 LineCode= 4/0Triplex units=ft 
new Line._389-3231742-2 phases=2 bus1=_500-3087972_N.1.2 bus2=_406-2102383_N.1.2 length=346.4 LineCode= 4/0Triplex units=ft 
new Line._389-153730-1 phases=3 bus1=_409-23087_N_SEC.1.2.3.0 bus2=_406-92761_N.1.2.3.0 length=405.1 spacing=SEC_OH_ABCN units=ft CNCables=[unknown,unknown,unknown]
new Line._411-3122976-0 phases=1 bus1=_500-4537019_N.3 bus2=_395-3109884_SN.3 length=946.3 spacing=PRI_UG_C units=ft CNCables=[4/0CN15]
new Line._411-198923-0 phases=1 bus1=_500-14009_N.3 bus2=_395-219604_SN.3 length=334.1 spacing=PRI_UG_C units=ft CNCables=[2CN15]
new Line._389-151695-0 phases=2 bus1=_409-23086_N_SEC.1.2 bus2=_406-92246_N.1.2 length=247.1 LineCode= 4/0Triplex units=ft 
new Line._394-2861181-0 phases=1 bus1=_402-1760651_LN.2 bus2=_500-3376246_N.2 length=32.8 spacing=PRI_UG_B units=ft wires=[556AAC]
new Line._389-152745-0 phases=2 bus1=_409-22385_N_SEC.1.2 bus2=_406-92272_N.1.2 length=578.8 LineCode= 4/0Triplex units=ft 
new Line._389-153293-2 phases=2 bus1=_409-23079_N_SEC.2.3 bus2=_406-1855046_N.2.3 length=301.0 spacing=SEC_OH_BCN units=ft CNCables=[unknown,unknown]
new Line._389-4550960-1 phases=2 bus1=_500-4481426_N.1.2 bus2=_406-3326696_N.1.2 length=125.3 LineCode= 4/0Triplex units=ft 
new Line._389-3466579-1 phases=3 bus1=_500-15197_N.1.2.3.0 bus2=_403-1490489_SN.1.2.3.0 length=930.1 spacing=PRI_OH_ABCN units=ft wires=[4ACSR,4ACSR,4ACSR]
new Line._389-2114417-0 phases=3 bus1=_391-851127_LN.1.2.3.0 bus2=_500-1796344_N.1.2.3.0 length=168.5 spacing=SEC_OH_ABCN units=ft CNCables=[unknown,unknown,unknown]
new Line._389-4215234-4 phases=3 bus1=_729-35525_N.1.2.3.0 bus2=_500-4125890_N.1.2.3.0 length=29.6 spacing=PRI_OH_ABCN units=ft wires=[2/0ACSR,2/0ACSR,2/0ACSR]
new Line._389-3987876-0 phases=2 bus1=_409-1678771_N_SEC.1.3 bus2=_406-2526307_N.1.3 length=123.4 spacing=SEC_OH_ACN units=ft CNCables=[unknown,unknown]
new Line._411-3122943-0 phases=1 bus1=_500-4537017_N.2 bus2=_395-3109851_SN.2 length=898.0 spacing=PRI_UG_B units=ft CNCables=[4/0CN15]
new Line._394-1887356-0 phases=1 bus1=_402-956022_LN.2 bus2=_500-2177608_N.2 length=32.8 spacing=PRI_UG_B units=ft wires=[556AAC]
new Line._389-159696-11 phases=3 bus1=_500-15223_N.1.2.3.0 bus2=_409-23102_N.1.2.3.0 length=1274.9 spacing=PRI_OH_ABCN units=ft wires=[556AAC,556AAC,556AAC]
new Line._411-2286624-0 phases=1 bus1=_500-3137443_N.1 bus2=_395-2277692_SN.1 length=568.8 spacing=PRI_UG_A units=ft CNCables=[1CN15]
new Line._389-152734-0 phases=2 bus1=_409-23014_N_SEC.1.2 bus2=_406-92261_N.1.2 length=397.9 LineCode= 4/0Triplex units=ft 
new Line._389-153610-2 phases=3 bus1=_409-23029_N_SEC.1.2.3.0 bus2=_500-2251096_N.1.2.3.0 length=476.4 spacing=SEC_OH_ABCN units=ft CNCables=[unknown,unknown,unknown]
new Line._411-2324704-0 phases=1 bus1=_500-3189670_N.1 bus2=_395-2314492_SN.1 length=82.1 spacing=PRI_UG_A units=ft CNCables=[1CN15]
new Line._394-3610165-0 phases=1 bus1=_402-2365640_LN.1 bus2=_500-4537015_N.1 length=32.8 spacing=PRI_UG_A units=ft wires=[556AAC]
new Line._389-2397574-0 phases=2 bus1=_500-2131378_N.1.2 bus2=_500-1287208_N.1.2 length=551.3 LineCode= 4/0Triplex units=ft 
new Line._389-4187491-31 phases=3 bus1=_409-23035_N.1.2.3.0 bus2=_409-2046771_N.1.2.3.0 length=299.9 spacing=PRI_OH_ABCN units=ft wires=[2/0ACSR,2/0ACSR,2/0ACSR]
new Line._394-1851932-0 phases=1 bus1=_402-922103_LN.2 bus2=_500-2131649_N.2 length=32.8 spacing=PRI_UG_B units=ft wires=[556AAC]
new Line._389-4187491-32 phases=3 bus1=_409-2046771_N.1.2.3.0 bus2=_409-23030_N.1.2.3.0 length=377.1 spacing=PRI_OH_ABCN units=ft wires=[2/0ACSR,2/0ACSR,2/0ACSR]
new Line._389-453815-1 phases=2 bus1=_403-142226_LN.2.3 bus2=_409-1365332_N.2.3 length=117.7 spacing=PRI_OH_BCN units=ft wires=[4ACSR,4ACSR]
new Line._389-453815-2 phases=2 bus1=_409-1365332_N.2.3 bus2=_403-142227_SN.2.3 length=27.7 spacing=PRI_OH_BCN units=ft wires=[4ACSR,4ACSR]
new Line._389-153205-1 phases=2 bus1=_409-23012_N_SEC.2.3 bus2=_406-92412_N.2.3 length=285.7 spacing=SEC_OH_BCN units=ft CNCables=[unknown,unknown]
new Line._389-1466369-5 phases=3 bus1=_500-2944324_N.1.2.3.0 bus2=_500-940329_N.1.2.3.0 length=496.7 spacing=SEC_OH_ABCN units=ft CNCables=[unknown,unknown,unknown]
new Line._389-1466369-4 phases=3 bus1=_409-23080_N_SEC.1.2.3.0 bus2=_500-2944324_N.1.2.3.0 length=146.9 spacing=SEC_OH_ABCN units=ft CNCables=[unknown,unknown,unknown]
new Line._389-4120984-1 phases=3 bus1=_409-23043_N_SEC.1.2.3.0 bus2=_406-2950467_N.1.2.3.0 length=166.2 spacing=SEC_OH_ABCN units=ft CNCables=[unknown,unknown,unknown]
new Line._394-3282413-0 phases=1 bus1=_402-2071494_LN.1 bus2=_500-4034324_N.1 length=32.8 spacing=PRI_UG_A units=ft wires=[556AAC]
new Line._389-3584754-3 phases=3 bus1=_409-23044_N.1.2.3.0 bus2=_403-1545214_SN.1.2.3.0 length=424.9 spacing=PRI_OH_ABCN units=ft wires=[6CU,6CU,6CU]
new Line._389-3584754-1 phases=3 bus1=_402-37852_LN.1.2.3.0 bus2=_409-23044_N.1.2.3.0 length=472.1 spacing=PRI_OH_ABCN units=ft wires=[6CU,6CU,6CU]
new Line._389-150172-2 phases=3 bus1=_409-23066_N.1.2.3.0 bus2=_409-23100_N.1.2.3.0 length=520.6 spacing=PRI_OH_ABCN units=ft wires=[6CU,6CU,6CU]
new Line._389-150172-3 phases=3 bus1=_409-23100_N.1.2.3.0 bus2=_500-15224_N.1.2.3.0 length=26.2 spacing=PRI_OH_ABCN units=ft wires=[6CU,6CU,6CU]
new Line._389-150172-0 phases=3 bus1=_403-39761_LN.1.2.3.0 bus2=_409-23029_N.1.2.3.0 length=469.7 spacing=PRI_OH_ABCN units=ft wires=[6CU,6CU,6CU]
new Line._411-199168-1 phases=1 bus1=_395-219033_LN.2 bus2=_395-219034_SN.2 length=814.0 spacing=PRI_UG_B units=ft CNCables=[1CN15]
new Line._389-150208-28 phases=3 bus1=_403-37199_LN.1.2.3.0 bus2=_409-23125_N.1.2.3.0 length=439.4 spacing=PRI_OH_ABCN units=ft wires=[6CU,6CU,6CU]
new Line._389-3616594-0 phases=3 bus1=_500-3492705_N.1.2.3.0 bus2=_406-92666_N.1.2.3.0 length=37.0 spacing=SEC_OH_ABCN units=ft CNCables=[unknown,unknown,unknown]
new Line._389-4494050-1 phases=3 bus1=_391-2383192_LN.1.2.3.0 bus2=_406-3279267_N.1.2.3.0 length=81.4 spacing=SEC_OH_ABCN units=ft CNCables=[unknown,unknown,unknown]
new Line._389-150208-25 phases=3 bus1=_409-23125_N.1.2.3.0 bus2=_409-1678771_N.1.2.3.0 length=466.6 spacing=PRI_OH_ABCN units=ft wires=[6CU,6CU,6CU]
new Line._389-153055-0 phases=2 bus1=_409-22385_N_SEC.1.2 bus2=_406-92358_N.1.2 length=405.4 LineCode= 4/0Triplex units=ft 
new Line._389-152691-1 phases=2 bus1=_409-23023_N_SEC.1.2 bus2=_406-92191_N.1.2 length=457.6 LineCode= 4/0Triplex units=ft 
new Line._389-150208-22 phases=3 bus1=_409-1678771_N.1.2.3.0 bus2=_500-4036473_N.1.2.3.0 length=21.3 spacing=PRI_OH_ABCN units=ft wires=[6CU,6CU,6CU]
new Line._389-153216-0 phases=3 bus1=_409-23069_N_SEC.1.2.3.0 bus2=_406-92423_N.1.2.3.0 length=314.1 spacing=SEC_OH_ABCN units=ft CNCables=[unknown,unknown,unknown]
new Line._389-3584765-0 phases=2 bus1=_409-23044_N_SEC.1.2 bus2=_500-3458844_N.1.2 length=175.6 LineCode= 4/0Triplex units=ft 
new Line._389-3326463-0 phases=3 bus1=_500-15145_N.1.2.3.0 bus2=_403-1425850_SN.1.2.3.0 length=53.5 spacing=PRI_OH_ABCN units=ft wires=[556AAC,556AAC,556AAC]
new Line._411-3122978-0 phases=1 bus1=_395-3109887_LN.2 bus2=_395-3109888_SN.2 length=492.8 spacing=PRI_UG_B units=ft CNCables=[1CN15]
new Line._389-3352394-0 phases=3 bus1=_396-174451_LN.1.2.3.0 bus2=_403-36888_SN.1.2.3.0 length=494.0 spacing=PRI_OH_ABCN units=ft wires=[556AAC,556AAC,556AAC]
new Line._389-153129-3 phases=3 bus1=_500-4154619_N.1.2.3.0 bus2=_406-92384_N.1.2.3.0 length=279.7 spacing=SEC_OH_ABCN units=ft CNCables=[unknown,unknown,unknown]
new Line._389-153129-2 phases=3 bus1=_409-23096_N_SEC.1.2.3.0 bus2=_500-4154619_N.1.2.3.0 length=533.1 spacing=SEC_OH_ABCN units=ft CNCables=[unknown,unknown,unknown]
new Line._389-152747-2 phases=2 bus1=_409-22385_N_SEC.1.2 bus2=_406-92274_N.1.2 length=1028.1 LineCode= 4/0Triplex units=ft 
new Line._394-2623101-0 phases=1 bus1=_396-164547_LN.2 bus2=_500-3093431_N.2 length=32.8 spacing=PRI_UG_B units=ft wires=[556AAC]
new Line._389-3096211-0 phases=3 bus1=_391-1713300_LN.1.2.3.0 bus2=_406-1943459_N.1.2.3.0 length=112.9 spacing=SEC_OH_ABCN units=ft CNCables=[unknown,unknown,unknown]
new Line._389-2891265-4 phases=3 bus1=_409-23092_N_SEC.1.2.3.0 bus2=_406-1833573_N.1.2.3.0 length=222.5 spacing=SEC_OH_ABCN units=ft CNCables=[unknown,unknown,unknown]
new Line._389-150196-0 phases=1 bus1=_402-36889_LN.2 bus2=_409-23014_N.2 length=299.4 spacing=PRI_OH_BN units=ft wires=[6CU]
new Line._389-3987874-2 phases=2 bus1=_500-1860430_N.1.3 bus2=_406-92478_N.1.3 length=269.5 spacing=SEC_OH_ACN units=ft CNCables=[unknown,unknown]
new Line._389-150196-1 phases=1 bus1=_409-23014_N.2 bus2=_500-15212_N.2 length=26.2 spacing=PRI_OH_BN units=ft wires=[6CU]
new Line._389-150183-17 phases=1 bus1=_409-23023_N.3 bus2=_500-15228_N.3 length=813.7 spacing=PRI_OH_CN units=ft wires=[6CU]
new Line._394-2861183-0 phases=1 bus1=_402-1760651_LN.3 bus2=_500-3376248_N.3 length=32.8 spacing=PRI_UG_C units=ft wires=[556AAC]
new Line._411-2324706-0 phases=1 bus1=_500-3189674_N.3 bus2=_395-2314494_SN.3 length=77.5 spacing=PRI_UG_C units=ft CNCables=[1CN15]
new Line._411-2286626-0 phases=1 bus1=_500-3137447_N.3 bus2=_395-2277694_SN.3 length=576.1 spacing=PRI_UG_C units=ft CNCables=[1CN15]
new Line._389-151686-0 phases=2 bus1=_409-23085_N_SEC.1.2 bus2=_406-92237_N.1.2 length=296.4 LineCode= 4/0Triplex units=ft 
new Line._389-1774210-2 phases=2 bus1=_391-828099_LN.1.2 bus2=_500-3172147_N.1.2 length=117.8 LineCode= 4/0Triplex units=ft 
new Line._389-153469-1 phases=3 bus1=_409-23095_N_SEC.1.2.3.0 bus2=_406-92628_N.1.2.3.0 length=207.4 spacing=SEC_OH_ABCN units=ft CNCables=[unknown,unknown,unknown]
new Line._394-1851930-0 phases=1 bus1=_402-922103_LN.1 bus2=_500-2131167_N.1 length=32.8 spacing=PRI_UG_A units=ft wires=[556AAC]
new Line._389-152736-4 phases=2 bus1=_409-23014_N_SEC.1.2 bus2=_500-3441489_N.1.2 length=354.2 LineCode= 4/0Triplex units=ft 
new Line._394-3604353-0 phases=1 bus1=_500-4529844_N.3 bus2=_396-274611_SN.3 length=32.8 spacing=PRI_UG_C units=ft wires=[556AAC]
new Line._389-1494219-4 phases=3 bus1=_409-23079_N.1.2.3.0 bus2=_403-801451_SN.1.2.3.0 length=49.3 spacing=PRI_OH_ABCN units=ft wires=[2/0ACSR,2/0ACSR,2/0ACSR]
new Line._389-150183-24 phases=1 bus1=_409-1033379_N.3 bus2=_409-1374934_N.3 length=268.7 spacing=PRI_OH_CN units=ft wires=[6CU]
new Line._389-150317-0 phases=2 bus1=_500-15180_N.1.3 bus2=_402-36898_SN.1.3 length=86.1 spacing=PRI_OH_ACN units=ft wires=[6CU,6CU]
new Line._389-152701-1 phases=2 bus1=_409-23066_N_SEC.1.2 bus2=_406-92201_N.1.2 length=361.7 LineCode= 4/0Triplex units=ft 
new Line._389-150183-27 phases=1 bus1=_403-1545212_LN.3 bus2=_409-1033379_N.3 length=399.2 spacing=PRI_OH_CN units=ft wires=[6CU]
new Line._389-150183-25 phases=1 bus1=_409-1374934_N.3 bus2=_409-23023_N.3 length=878.8 spacing=PRI_OH_CN units=ft wires=[6CU]
new Line._389-4600595-0 phases=3 bus1=_403-1269049_LN.1.2.3.0 bus2=_409-1333350_N.1.2.3.0 length=20.7 spacing=PRI_OH_ABCN units=ft wires=[4ACSR,4ACSR,4ACSR]
new Line._389-4600595-5 phases=3 bus1=_409-1333350_N.1.2.3.0 bus2=_500-4536981_N.1.2.3.0 length=74.7 spacing=PRI_OH_ABCN units=ft wires=[4ACSR,4ACSR,4ACSR]
new Line._411-2491440-0 phases=1 bus1=_500-3423257_N.1 bus2=_395-2485388_SN.1 length=66.8 spacing=PRI_UG_A units=ft CNCables=[1CN15]
new Line._411-2876217-0 phases=1 bus1=_395-2864399_LN.1 bus2=_395-2864405_SN.1 length=245.1 spacing=PRI_UG_A units=ft CNCables=[1CN15]
new Line._389-153264-4 phases=3 bus1=_409-22698_N_SEC.1.2.3.0 bus2=_406-92439_N.1.2.3.0 length=340.5 spacing=SEC_OH_ABCN units=ft CNCables=[unknown,unknown,unknown]
new Line._394-2659549-0 phases=1 bus1=_402-1616327_LN.2 bus2=_500-3137445_N.2 length=32.8 spacing=PRI_UG_B units=ft wires=[556AAC]
new Line._389-3148530-1 phases=3 bus1=_500-2987474_N.1.2.3.0 bus2=_406-2050947_N.1.2.3.0 length=73.1 spacing=SEC_OH_ABCN units=ft CNCables=[unknown,unknown,unknown]
new Line._389-3584756-0 phases=3 bus1=_409-1487587_N_SEC.1.2.3.0 bus2=_406-92694_N.1.2.3.0 length=406.2 spacing=SEC_OH_ABCN units=ft CNCables=[unknown,unknown,unknown]
new Line._394-3282415-0 phases=1 bus1=_402-2071494_LN.3 bus2=_500-4034328_N.3 length=32.8 spacing=PRI_UG_C units=ft wires=[556AAC]
new Line._411-2489504-0 phases=1 bus1=_500-3418778_N.1 bus2=_395-2483452_SN.1 length=77.6 spacing=PRI_UG_A units=ft CNCables=[1CN15]
new Line._389-153131-1 phases=2 bus1=_409-22705_N_SEC.2.3 bus2=_406-92386_N.2.3 length=285.7 spacing=SEC_OH_BCN units=ft CNCables=[unknown,unknown]
new Line._389-3133617-0 phases=2 bus1=_500-2970209_N.1.2 bus2=_406-92189_N.1.2 length=64.6 LineCode= 4/0Triplex units=ft 
new Line._389-4585905-15 phases=3 bus1=_409-2046499_N.1.2.3.0 bus2=_409-23087_N.1.2.3.0 length=410.9 spacing=PRI_OH_ABCN units=ft wires=[336ACSR,336ACSR,336ACSR]
new Line._389-4585905-14 phases=3 bus1=_409-234868_N.1.2.3.0 bus2=_409-2046499_N.1.2.3.0 length=467.7 spacing=PRI_OH_ABCN units=ft wires=[336ACSR,336ACSR,336ACSR]
new Line._389-3567432-1 phases=3 bus1=_409-150372_N_SEC.1.2.3.0 bus2=_406-2076023_N.1.2.3.0 length=201.4 spacing=SEC_OH_ABCN units=ft CNCables=[unknown,unknown,unknown]
new Line._411-2532160-0 phases=1 bus1=_395-2525468_LN.1 bus2=_395-2525469_SN.1 length=134.8 spacing=PRI_UG_A units=ft CNCables=[1CN15]
new Line._389-152716-0 phases=2 bus1=_409-23063_N_SEC.1.2 bus2=_406-92216_N.1.2 length=249.4 LineCode= 4/0Triplex units=ft 
new Line._389-152693-1 phases=2 bus1=_409-23023_N_SEC.1.2 bus2=_406-92193_N.1.2 length=365.0 LineCode= 4/0Triplex units=ft 
new Line._389-4585905-10 phases=3 bus1=_409-23087_N.1.2.3.0 bus2=_403-37193_SN.1.2.3.0 length=26.1 spacing=PRI_OH_ABCN units=ft wires=[336ACSR,336ACSR,336ACSR]
new Line._389-150261-0 phases=3 bus1=_500-15210_N.1.2.3.0 bus2=_500-15209_N.1.2.3.0 length=71.1 spacing=PRI_OH_ABCN units=ft wires=[6CU,6CU,6CU]
new Line._389-153734-0 phases=3 bus1=_409-23100_N_SEC.1.2.3.0 bus2=_406-92765_N.1.2.3.0 length=332.8 spacing=SEC_OH_ABCN units=ft CNCables=[unknown,unknown,unknown]
new Line._389-455074-0 phases=2 bus1=_409-23123_N_SEC.1.2 bus2=_406-92317_N.1.2 length=596.6 LineCode= 4/0Triplex units=ft 
new Line._389-3584767-0 phases=2 bus1=_409-23044_N_SEC.1.2 bus2=_500-3458845_N.1.2 length=62.8 LineCode= 4/0Triplex units=ft 
new Line._394-68679-0 phases=1 bus1=_402-36574_LN.1 bus2=_500-15207_N.1 length=32.8 spacing=PRI_UG_A units=ft wires=[556AAC]
new Line._394-247587-0 phases=1 bus1=_402-126828_LN.3 bus2=_500-14009_N.3 length=32.8 spacing=PRI_UG_C units=ft wires=[556AAC]
new Line._389-152749-1 phases=2 bus1=_409-23060_N_SEC.1.2 bus2=_406-92276_N.1.2 length=461.3 LineCode= 4/0Triplex units=ft 
new Line._389-4108778-1 phases=2 bus1=_500-4010886_N.1.3 bus2=_406-2938509_N.1.3 length=337.6 spacing=SEC_OH_ACN units=ft CNCables=[unknown,unknown]
new Line._389-446130-0 phases=3 bus1=_500-15132_N.1.2.3.0 bus2=_500-15137_N.1.2.3.0 length=609.3 spacing=PRI_OH_ABCN units=ft wires=[556AAC,556AAC,556AAC]
new Line._389-153286-4 phases=2 bus1=_409-23074_N_SEC.1.3 bus2=_406-92445_N.1.3 length=414.9 spacing=SEC_OH_ACN units=ft CNCables=[unknown,unknown]
new Line._394-3341011-0 phases=1 bus1=_396-225971_LN.2 bus2=_500-4125810_N.2 length=32.8 spacing=PRI_UG_B units=ft wires=[556AAC]
new Line._394-3604348-0 phases=1 bus1=_396-274612_LN.1 bus2=_500-4529807_N.1 length=32.8 spacing=PRI_UG_A units=ft wires=[556AAC]
new Line._394-2896349-0 phases=1 bus1=_402-1786262_LN.2 bus2=_500-3418780_N.2 length=32.8 spacing=PRI_UG_B units=ft wires=[556AAC]
new Line._389-153153-0 phases=2 bus1=_409-23013_N_SEC.2.3 bus2=_406-92392_N.2.3 length=269.4 spacing=SEC_OH_BCN units=ft CNCables=[unknown,unknown]
new Line._389-3332251-0 phases=2 bus1=_409-1374934_N_SEC.1.2 bus2=_406-92200_N.1.2 length=237.3 LineCode= 4/0Triplex units=ft 
new Line._389-153614-1 phases=3 bus1=_409-23029_N_SEC.1.2.3.0 bus2=_500-3235504_N.1.2.3.0 length=252.6 spacing=SEC_OH_ABCN units=ft CNCables=[unknown,unknown,unknown]
new Line._389-454439-4 phases=3 bus1=_409-23037_N.1.2.3.0 bus2=_500-15198_N.1.2.3.0 length=206.4 spacing=PRI_OH_ABCN units=ft wires=[2STCU,2STCU,2STCU]
new Line._411-2324708-0 phases=1 bus1=_395-2314497_LN.2 bus2=_395-2314498_SN.2 length=247.4 spacing=PRI_UG_B units=ft CNCables=[1CN15]
new Line._389-151688-0 phases=3 bus1=_391-33252_LN.1.2.3.0 bus2=_406-92239_N.1.2.3.0 length=90.2 spacing=SEC_OH_ABCN units=ft CNCables=[unknown,unknown,unknown]
new Line._389-3146603-2 phases=2 bus1=_500-2984550_N.1.2 bus2=_500-2984552_N.1.2 length=263.7 LineCode= 4/0Triplex units=ft 
new Line._389-454439-7 phases=3 bus1=_403-142232_LN.1.2.3.0 bus2=_409-23037_N.1.2.3.0 length=1411.7 spacing=PRI_OH_ABCN units=ft wires=[2STCU,2STCU,2STCU]
new Line._394-3610169-0 phases=1 bus1=_402-2365640_LN.3 bus2=_500-4537019_N.3 length=32.8 spacing=PRI_UG_C units=ft wires=[556AAC]
new Line._389-3305976-0 phases=3 bus1=_409-23090_N_SEC.1.2.3.0 bus2=_500-3173285_N.1.2.3.0 length=162.5 spacing=SEC_OH_ABCN units=ft CNCables=[unknown,unknown,unknown]
new Line._389-153712-0 phases=2 bus1=_409-23121_N_SEC.1.2 bus2=_406-92759_N.1.2 length=277.1 LineCode= 4/0Triplex units=ft 
new Line._411-2870451-0 phases=1 bus1=_500-4125312_N.1 bus2=_395-2858642_SN.1 length=1611.4 spacing=PRI_UG_A units=ft CNCables=[350CN15]
new Line._389-152703-1 phases=2 bus1=_409-23066_N_SEC.1.2 bus2=_406-92203_N.1.2 length=558.1 LineCode= 4/0Triplex units=ft 
new Line._411-3118450-0 phases=1 bus1=_500-4529843_N.3 bus2=_500-4529844_N.3 length=598.6 spacing=PRI_UG_C units=ft CNCables=[350CN15]
new Line._389-922127-0 phases=3 bus1=_409-176291_N_SEC.1.2.3.0 bus2=_500-344999_N.1.2.3.0 length=169.5 spacing=SEC_OH_ABCN units=ft CNCables=[unknown,unknown,unknown]
new Line._389-2216781-0 phases=2 bus1=_409-704709_N_SEC.1.2 bus2=_500-1907647_N.1.2 length=447.2 LineCode= 4/0Triplex units=ft 
new Line._394-1294235-1 phases=1 bus1=_500-15212_N.2 bus2=_402-708672_SN.2 length=65.6 spacing=PRI_UG_B units=ft wires=[556AAC]
new Line._389-3465363-5 phases=3 bus1=_409-1541093_N.1.2.3.0 bus2=_392-100534_SN.1.2.3.0 length=73.4 spacing=PRI_OH_ABCN units=ft wires=[556AAC,556AAC,556AAC]
new Line._411-3146022-0 phases=1 bus1=_500-4573504_N.1 bus2=_395-3133231_SN.1 length=573.0 spacing=PRI_UG_A units=ft CNCables=[1CN15]
new Line._389-2841668-4 phases=2 bus1=_409-1033379_N_SEC.1.2 bus2=_406-1797412_N.1.2 length=240.8 LineCode= 4/0Triplex units=ft 
new Line._411-2491442-0 phases=1 bus1=_500-3423261_N.3 bus2=_395-2485390_SN.3 length=62.2 spacing=PRI_UG_C units=ft CNCables=[1CN15]
new Line._411-2255921-0 phases=1 bus1=_500-3093431_N.2 bus2=_411-2255921-0_N.2 length=6231.3 spacing=PRI_UG_B units=ft CNCables=[1000CN15]
new Line._389-453819-0 phases=1 bus1=_500-15198_N.2 bus2=_403-142229_SN.2 length=32.8 spacing=PRI_OH_BN units=ft wires=[2STCU]
new Line._411-1536573-0 phases=1 bus1=_500-2131649_N.2 bus2=_395-1522795_SN.2 length=83.3 spacing=PRI_UG_B units=ft CNCables=[1CN15]
new Line._389-3584758-0 phases=3 bus1=_409-1487587_N_SEC.1.2.3.0 bus2=_406-2030483_N.1.2.3.0 length=479.3 spacing=SEC_OH_ABCN units=ft CNCables=[unknown,unknown,unknown]
new Line._394-2659547-0 phases=1 bus1=_402-1616327_LN.1 bus2=_500-3137443_N.1 length=32.8 spacing=PRI_UG_A units=ft wires=[556AAC]
new Line._389-3370581-0 phases=2 bus1=_409-23044_N_SEC.1.2 bus2=_500-3243138_N.1.2 length=16.2 LineCode= 4/0Triplex units=ft 
new Line._411-2532162-0 phases=1 bus1=_395-2525472_LN.3 bus2=_395-2525473_SN.3 length=131.3 spacing=PRI_UG_C units=ft CNCables=[1CN15]
new Line._389-3335735-0 phases=2 bus1=_500-2984552_N.1.2 bus2=_406-91618_N.1.2 length=87.8 LineCode= 4/0Triplex units=ft 
new Line._389-459538-0 phases=3 bus1=_391-146420_LN.1.2.3.0 bus2=_406-92379_N.1.2.3.0 length=292.5 spacing=SEC_OH_ABCN units=ft CNCables=[unknown,unknown,unknown]
new Line._411-2459449-0 phases=1 bus1=_500-3376246_N.2 bus2=_395-2453703_SN.2 length=3018.4 spacing=PRI_UG_B units=ft CNCables=[1CN15]
new Line._389-4215234-3 phases=3 bus1=_500-4125309_N.1.2.3.0 bus2=_729-35525_N.1.2.3.0 length=47.1 spacing=PRI_OH_ABCN units=ft wires=[2/0ACSR,2/0ACSR,2/0ACSR]
new Line._389-152718-0 phases=2 bus1=_409-23063_N_SEC.1.2 bus2=_406-92218_N.1.2 length=245.5 LineCode= 4/0Triplex units=ft 
new Line._389-3257601-0 phases=2 bus1=_409-1258403_N_SEC.1.2 bus2=_500-3139959_N.1.2 length=251.8 LineCode= 4/0Triplex units=ft 
new Line._389-153284-4 phases=2 bus1=_409-23074_N_SEC.1.3 bus2=_406-92443_N.1.3 length=349.3 spacing=SEC_OH_ACN units=ft CNCables=[unknown,unknown]
new Line._389-3534754-1 phases=2 bus1=_409-1470612_N_SEC.1.2 bus2=_406-2457139_N.1.2 length=160.4 LineCode= 4/0Triplex units=ft 
new Line._389-453476-0 phases=2 bus1=_403-36882_LN.2.3 bus2=_403-142218_SN.2.3 length=308.3 spacing=PRI_OH_BCN units=ft wires=[6CU,6CU]
new Line._389-153732-0 phases=3 bus1=_391-33198_LN.1.2.3.0 bus2=_406-92763_N.1.2.3.0 length=178.3 spacing=SEC_OH_ABCN units=ft CNCables=[unknown,unknown,unknown]
new Line._411-198921-0 phases=1 bus1=_500-14011_N.1 bus2=_395-219602_SN.1 length=339.8 spacing=PRI_UG_A units=ft CNCables=[2CN15]
new Line._389-153503-1 phases=2 bus1=_409-23071_N_SEC.1.3 bus2=_406-92662_N.1.3 length=433.0 spacing=SEC_OH_ACN units=ft CNCables=[unknown,unknown]
new Line._389-3465363-4 phases=3 bus1=_403-1425850_LN.1.2.3.0 bus2=_409-1541093_N.1.2.3.0 length=1525.5 spacing=PRI_OH_ABCN units=ft wires=[556AAC,556AAC,556AAC]
new Line._389-4131921-1 phases=3 bus1=_391-2327239_LN.1.2.3.0 bus2=_406-2961635_N.1.2.3.0 length=47.0 spacing=SEC_OH_ABCN units=ft CNCables=[unknown,unknown,unknown]
new Line._389-153295-0 phases=2 bus1=_409-23079_N_SEC.2.3 bus2=_406-92470_N.2.3 length=118.7 spacing=SEC_OH_BCN units=ft CNCables=[unknown,unknown]
new Line._389-152660-0 phases=2 bus1=_409-23061_N_SEC.1.2 bus2=_406-92223_N.1.2 length=316.1 LineCode= 4/0Triplex units=ft 
new Line._394-2704381-0 phases=1 bus1=_402-1648646_LN.3 bus2=_500-3189674_N.3 length=32.8 spacing=PRI_UG_C units=ft wires=[556AAC]
new Line._389-3022433-0 phases=3 bus1=_500-2846049_N.1.2.3.0 bus2=_500-2846050_N.1.2.3.0 length=512.1 spacing=SEC_OH_ABCN units=ft CNCables=[unknown,unknown,unknown]
new Line._389-3477137-4 phases=2 bus1=_500-3352179_N.1.3 bus2=_500-3352177_N.1.3 length=254.5 spacing=SEC_OH_ACN units=ft CNCables=[unknown,unknown]
new Line._389-3477137-3 phases=2 bus1=_500-3352178_N.1.3 bus2=_500-3352179_N.1.3 length=293.2 spacing=SEC_OH_ACN units=ft CNCables=[unknown,unknown]
new Line._389-3240161-0 phases=2 bus1=_500-3097377_N.1.2 bus2=_406-92266_N.1.2 length=90.0 LineCode= 4/0Triplex units=ft 
new Line._389-3477137-1 phases=2 bus1=_409-23078_N_SEC.1.3 bus2=_500-3352178_N.1.3 length=30.7 spacing=SEC_OH_ACN units=ft CNCables=[unknown,unknown]
new Line._394-3341013-0 phases=1 bus1=_396-225971_LN.3 bus2=_500-4125812_N.3 length=32.8 spacing=PRI_UG_C units=ft wires=[556AAC]
new Line._389-1822530-0 phases=2 bus1=_500-1383160_N.1.2 bus2=_406-92251_N.1.2 length=462.5 LineCode= 4/0Triplex units=ft 
new Line._394-3604346-1 phases=3 bus1=_396-274611_LN.1.2.3 bus2=_500-4529803_N.1.2.3 length=65.6 spacing=PRI_UG_ABC units=ft wires=[556AAC,556AAC,556AAC]
new Line._411-3122987-0 phases=1 bus1=_395-3109895_LN.2 bus2=_395-3109898_SN.2 length=74.4 spacing=PRI_UG_B units=ft CNCables=[1CN15]
new Line._389-153329-1 phases=2 bus1=_409-23079_N_SEC.2.3 bus2=_406-92472_N.2.3 length=351.5 spacing=SEC_OH_BCN units=ft CNCables=[unknown,unknown]
new Line._394-2896347-0 phases=1 bus1=_402-1786262_LN.1 bus2=_500-3418778_N.1 length=32.8 spacing=PRI_UG_A units=ft wires=[556AAC]
new Line._389-3332253-0 phases=2 bus1=_409-1374934_N_SEC.1.2 bus2=_406-92181_N.1.2 length=360.6 LineCode= 4/0Triplex units=ft 
new Line._394-1887354-1 phases=3 bus1=_500-2177604_N.1.2.3 bus2=_402-956022_SN.1.2.3 length=65.6 spacing=PRI_UG_ABC units=ft wires=[556AAC,556AAC,556AAC]
new Line._389-153612-1 phases=3 bus1=_409-23029_N_SEC.1.2.3 bus2=_406-92691_N.1.2.3 length=414.1 spacing=SEC_OH_ABCN units=ft CNCables=[unknown,unknown,unknown]
new Line._389-150201-10 phases=3 bus1=_409-23045_N.1.2.3.0 bus2=_500-15127_N.1.2.3.0 length=26.2 spacing=PRI_OH_ABCN units=ft wires=[6CU,6CU,6CU]
new Line._389-456594-4 phases=3 bus1=_409-23017_N.1.2.3.0 bus2=_500-15184_N.1.2.3.0 length=26.2 spacing=PRI_OH_ABCN units=ft wires=[6CU,6CU,6CU]
new Line._389-456594-3 phases=3 bus1=_403-144445_LN.1.2.3.0 bus2=_409-23017_N.1.2.3.0 length=109.2 spacing=PRI_OH_ABCN units=ft wires=[6CU,6CU,6CU]
new Line._411-1579572-0 phases=1 bus1=_395-1566093_LN.2 bus2=_395-1566096_SN.2 length=193.7 spacing=PRI_UG_B units=ft CNCables=[1CN15]
new Line._389-152671-0 phases=2 bus1=_391-33215_LN.1.2 bus2=_406-92234_N.1.2 length=168.0 LineCode= 4/0Triplex units=ft 
new Line._411-2876219-0 phases=1 bus1=_395-2864401_LN.3 bus2=_395-2864407_SN.3 length=359.0 spacing=PRI_UG_C units=ft CNCables=[1CN15]
new Line._394-3610167-0 phases=1 bus1=_402-2365640_LN.2 bus2=_500-4537017_N.2 length=32.8 spacing=PRI_UG_B units=ft wires=[556AAC]
...
